                                  SEAWAT Version 4
      U.S. GEOLOGICAL SURVEY MODULAR FINITE-DIFFERENCE GROUND-WATER FLOW MODEL
                           VERSION 4.00.05 10/19/2012


 This model run combines GLOBAL and LIST output into this single file.

 GLOBAL LISTING FILE: SV.list
                         UNIT    2

 OPENING SV.dis
 FILE TYPE:DIS   UNIT   11   STATUS:OLD    
 FORMAT:FORMATTED              ACCESS:SEQUENTIAL          

 OPENING SV.bas
 FILE TYPE:BAS6   UNIT   13   STATUS:OLD    
 FORMAT:FORMATTED              ACCESS:SEQUENTIAL          

 OPENING SV.ghb
 FILE TYPE:GHB   UNIT   23   STATUS:OLD    
 FORMAT:FORMATTED              ACCESS:SEQUENTIAL          

 OPENING SV.lpf
 FILE TYPE:LPF   UNIT   15   STATUS:OLD    
 FORMAT:FORMATTED              ACCESS:SEQUENTIAL          

 OPENING SV.pcg
 FILE TYPE:PCG   UNIT   27   STATUS:OLD    
 FORMAT:FORMATTED              ACCESS:SEQUENTIAL          

 OPENING SV.oc
 FILE TYPE:OC   UNIT   14   STATUS:OLD    
 FORMAT:FORMATTED              ACCESS:SEQUENTIAL          

 OPENING SV.btn
 FILE TYPE:BTN   UNIT   31   STATUS:OLD    
 FORMAT:FORMATTED              ACCESS:SEQUENTIAL          

 OPENING SV.adv
 FILE TYPE:ADV   UNIT   32   STATUS:OLD    
 FORMAT:FORMATTED              ACCESS:SEQUENTIAL          

 OPENING SV.dsp
 FILE TYPE:DSP   UNIT   33   STATUS:OLD    
 FORMAT:FORMATTED              ACCESS:SEQUENTIAL          

 OPENING SV.gcg
 FILE TYPE:GCG   UNIT   35   STATUS:OLD    
 FORMAT:FORMATTED              ACCESS:SEQUENTIAL          

 OPENING SV.ssm
 FILE TYPE:SSM   UNIT   34   STATUS:OLD    
 FORMAT:FORMATTED              ACCESS:SEQUENTIAL          

 OPENING SV.vdf
 FILE TYPE:VDF   UNIT   37   STATUS:OLD    
 FORMAT:FORMATTED              ACCESS:SEQUENTIAL          

 OPENING SV.cbc
 FILE TYPE:DATA(BINARY)   UNIT   53   STATUS:REPLACE
 FORMAT:UNFORMATTED            ACCESS:STREAM              

 OPENING SV.hds
 FILE TYPE:DATA(BINARY)   UNIT   51   STATUS:REPLACE
 FORMAT:UNFORMATTED            ACCESS:STREAM              

 THE FREE FORMAT OPTION HAS BEEN SELECTED

 DISCRETIZATION INPUT DATA READ FROM UNIT   11
 # DIS package for  SEAWAT, generated by Flopy.
   20 LAYERS        27 ROWS       345 COLUMNS
   81 STRESS PERIOD(S) IN SIMULATION
 MODEL TIME UNIT IS DAYS
 MODEL LENGTH UNIT IS METERS
  ----- 
 | M T | ## BTN for MT3DMS, generated by Flopy.                                          
 | 3 D | ##                                                                              
  ----- 
 THE TRANSPORT MODEL CONSISTS OF    20 LAYER(S)   27 ROW(S)  345 COLUMN(S)
 NUMBER OF STRESS PERIOD(S) FOR TRANSPORT SIMULATION =   81
 NUMBER OF ALL COMPONENTS INCLUDED IN SIMULATION =    1
 NUMBER OF MOBILE COMPONENTS INCLUDED IN SIMULATION =    1
 UNIT FOR TIME IS D   ;  UNIT FOR LENGTH IS M   ;  UNIT FOR MASS IS KG  
 OPTIONAL PACKAGES INCLUDED IN CURRENT SIMULATION:
  o ADV   ON UNIT 32
  o DSP   ON UNIT 33
  o SSM   ON UNIT 34
  o GCG   ON UNIT 35


 VDF -- VARIABLE DENSITY FLOW, VERSION 1, 2/13/2004
         INPUT READ FROM UNIT 37

 COUPLING BETWEEN FLOW AND TRANSPORT IS EXPLICIT
 VARIABLE-DENSITY WATER-TABLE CORRECTIONS NOT ADDED
 MT3DMS SPECIES USED IN EQUATION OF STATE FOR FLUID DENSITY:          1
 AN UPSTREAM-WEIGHTED ALGORITHM IS USED TO CALCULATE FLUID DENSITY TERMS THAT CONSERVE MASS
  1000.     REFERENCE DENSITY
 0.7143     DENSITY SLOPE FOR EQUATION OF STATE
 DENSITY EQUATION OF STATE
 RHO =     1000.00    
  + 0.7143     * ( CONC(   1) -  0.000     )



 FIRSTDT SPECIFIED BY USER IN THE VDF FILE IS:   0.1000000E-02
 THE GROUND-WATER TRANSPORT PROCESS IS INACTIVE

 THE OBSERVATION PROCESS IS INACTIVE
 THE SENSITIVITY PROCESS IS INACTIVE
 THE PARAMETER-ESTIMATION PROCESS IS INACTIVE

 MODE: FORWARD

  Confining bed flag for each layer:
   0   0   0   0   0   0   0   0   0   0   0   0   0   0   0   0   0   0   0   0

    1677072  ELEMENTS OF GX ARRAY USED OUT OF    1677072
     186300  ELEMENTS OF GZ ARRAY USED OUT OF     186300
     186300  ELEMENTS OF IG ARRAY USED OUT OF     186300

                     DELR =   60.9600    

                     DELC =   60.9600    



           TOP ELEVATION OF LAYER 1
 READING ON UNIT   11 WITH FORMAT:          (345E15.6) 

   MODEL LAYER BOTTOM EL. =  -2.00000     FOR LAYER   1

   MODEL LAYER BOTTOM EL. =  -9.68420     FOR LAYER   2

   MODEL LAYER BOTTOM EL. =  -17.3680     FOR LAYER   3

   MODEL LAYER BOTTOM EL. =  -25.0530     FOR LAYER   4

   MODEL LAYER BOTTOM EL. =  -32.7370     FOR LAYER   5

   MODEL LAYER BOTTOM EL. =  -40.4210     FOR LAYER   6

   MODEL LAYER BOTTOM EL. =  -48.1050     FOR LAYER   7

   MODEL LAYER BOTTOM EL. =  -55.7890     FOR LAYER   8

   MODEL LAYER BOTTOM EL. =  -63.4740     FOR LAYER   9

   MODEL LAYER BOTTOM EL. =  -71.1580     FOR LAYER  10

   MODEL LAYER BOTTOM EL. =  -78.8420     FOR LAYER  11

   MODEL LAYER BOTTOM EL. =  -86.5260     FOR LAYER  12

   MODEL LAYER BOTTOM EL. =  -94.2110     FOR LAYER  13

   MODEL LAYER BOTTOM EL. =  -101.890     FOR LAYER  14

   MODEL LAYER BOTTOM EL. =  -109.580     FOR LAYER  15

   MODEL LAYER BOTTOM EL. =  -117.260     FOR LAYER  16

   MODEL LAYER BOTTOM EL. =  -124.950     FOR LAYER  17

   MODEL LAYER BOTTOM EL. =  -132.630     FOR LAYER  18

   MODEL LAYER BOTTOM EL. =  -140.320     FOR LAYER  19

   MODEL LAYER BOTTOM EL. =  -148.000     FOR LAYER  20


 STRESS PERIOD     LENGTH       TIME STEPS     MULTIPLIER FOR DELT    SS FLAG
 ----------------------------------------------------------------------------
        1         182.5000          1                    1.100         TR
        2         182.5000          1                    1.100         TR
        3         182.5000          1                    1.100         TR
        4         182.5000          1                    1.100         TR
        5         182.5000          1                    1.100         TR
        6         182.5000          1                    1.100         TR
        7         182.5000          1                    1.100         TR
        8         182.5000          1                    1.100         TR
        9         182.5000          1                    1.100         TR
       10         182.5000          1                    1.100         TR
       11         182.5000          1                    1.100         TR
       12         182.5000          1                    1.100         TR
       13         182.5000          1                    1.100         TR
       14         182.5000          1                    1.100         TR
       15         182.5000          1                    1.100         TR
       16         182.5000          1                    1.100         TR
       17         182.5000          1                    1.100         TR
       18         182.5000          1                    1.100         TR
       19         182.5000          1                    1.100         TR
       20         182.5000          1                    1.100         TR
       21         182.5000          1                    1.100         TR
       22         182.5000          1                    1.100         TR
       23         182.5000          1                    1.100         TR
       24         182.5000          1                    1.100         TR
       25         182.5000          1                    1.100         TR
       26         182.5000          1                    1.100         TR
       27         182.5000          1                    1.100         TR
       28         182.5000          1                    1.100         TR
       29         182.5000          1                    1.100         TR
       30         182.5000          1                    1.100         TR
       31         182.5000          1                    1.100         TR
       32         182.5000          1                    1.100         TR
       33         182.5000          1                    1.100         TR
       34         182.5000          1                    1.100         TR
       35         182.5000          1                    1.100         TR
       36         182.5000          1                    1.100         TR
       37         182.5000          1                    1.100         TR
       38         182.5000          1                    1.100         TR
       39         182.5000          1                    1.100         TR
       40         182.5000          1                    1.100         TR
       41         182.5000          1                    1.100         TR
       42         182.5000          1                    1.100         TR
       43         182.5000          1                    1.100         TR
       44         182.5000          1                    1.100         TR
       45         182.5000          1                    1.100         TR
       46         182.5000          1                    1.100         TR
       47         182.5000          1                    1.100         TR
       48         182.5000          1                    1.100         TR
       49         182.5000          1                    1.100         TR
       50         182.5000          1                    1.100         TR
       51         182.5000          1                    1.100         TR
       52         182.5000          1                    1.100         TR
       53         182.5000          1                    1.100         TR
       54         182.5000          1                    1.100         TR
       55         182.5000          1                    1.100         TR
       56         182.5000          1                    1.100         TR
       57         182.5000          1                    1.100         TR
       58         182.5000          1                    1.100         TR
       59         182.5000          1                    1.100         TR
       60         182.5000          1                    1.100         TR
       61         182.5000          1                    1.100         TR
       62         182.5000          1                    1.100         TR
       63         182.5000          1                    1.100         TR
       64         182.5000          1                    1.100         TR
       65         182.5000          1                    1.100         TR
       66         182.5000          1                    1.100         TR
       67         182.5000          1                    1.100         TR
       68         182.5000          1                    1.100         TR
       69         182.5000          1                    1.100         TR
       70         182.5000          1                    1.100         TR
       71         182.5000          1                    1.100         TR
       72         182.5000          1                    1.100         TR
       73         182.5000          1                    1.100         TR
       74         182.5000          1                    1.100         TR
       75         182.5000          1                    1.100         TR
       76         182.5000          1                    1.100         TR
       77         182.5000          1                    1.100         TR
       78         182.5000          1                    1.100         TR
       79         182.5000          1                    1.100         TR
       80         182.5000          1                    1.100         TR
       81         182.5000          1                    1.100         TR

 TRANSIENT SIMULATION




 LPF1 -- LAYER PROPERTY FLOW PACKAGE, VERSION 1, 1/11/2000
         INPUT READ FROM UNIT   15
 # LPF package for  SEAWAT, generated by Flopy.
 CELL-BY-CELL FLOWS WILL BE SAVED ON UNIT   53
 HEAD AT CELLS THAT CONVERT TO DRY= -1.00000E+30
 No named parameters

   LAYER FLAGS:
 LAYER       LAYTYP        LAYAVG         CHANI        LAYVKA        LAYWET
 ---------------------------------------------------------------------------
    1             0             0     1.000E+00             0             0
    2             0             0     1.000E+00             0             0
    3             0             0     1.000E+00             0             0
    4             0             0     1.000E+00             0             0
    5             0             0     1.000E+00             0             0
    6             0             0     1.000E+00             0             0
    7             0             0     1.000E+00             0             0
    8             0             0     1.000E+00             0             0
    9             0             0     1.000E+00             0             0
   10             0             0     1.000E+00             0             0
   11             0             0     1.000E+00             0             0
   12             0             0     1.000E+00             0             0
   13             0             0     1.000E+00             0             0
   14             0             0     1.000E+00             0             0
   15             0             0     1.000E+00             0             0
   16             0             0     1.000E+00             0             0
   17             0             0     1.000E+00             0             0
   18             0             0     1.000E+00             0             0
   19             0             0     1.000E+00             0             0
   20             0             0     1.000E+00             0             0

   INTERPRETATION OF LAYER FLAGS:
                        INTERBLOCK     HORIZONTAL    DATA IN
         LAYER TYPE   TRANSMISSIVITY   ANISOTROPY   ARRAY VKA   WETTABILITY
 LAYER      (LAYTYP)      (LAYAVG)       (CHANI)      (LAYVKA)      (LAYWET)
 ---------------------------------------------------------------------------
    1      CONFINED      HARMONIC     1.000E+00    VERTICAL K  NON-WETTABLE
    2      CONFINED      HARMONIC     1.000E+00    VERTICAL K  NON-WETTABLE
    3      CONFINED      HARMONIC     1.000E+00    VERTICAL K  NON-WETTABLE
    4      CONFINED      HARMONIC     1.000E+00    VERTICAL K  NON-WETTABLE
    5      CONFINED      HARMONIC     1.000E+00    VERTICAL K  NON-WETTABLE
    6      CONFINED      HARMONIC     1.000E+00    VERTICAL K  NON-WETTABLE
    7      CONFINED      HARMONIC     1.000E+00    VERTICAL K  NON-WETTABLE
    8      CONFINED      HARMONIC     1.000E+00    VERTICAL K  NON-WETTABLE
    9      CONFINED      HARMONIC     1.000E+00    VERTICAL K  NON-WETTABLE
   10      CONFINED      HARMONIC     1.000E+00    VERTICAL K  NON-WETTABLE
   11      CONFINED      HARMONIC     1.000E+00    VERTICAL K  NON-WETTABLE
   12      CONFINED      HARMONIC     1.000E+00    VERTICAL K  NON-WETTABLE
   13      CONFINED      HARMONIC     1.000E+00    VERTICAL K  NON-WETTABLE
   14      CONFINED      HARMONIC     1.000E+00    VERTICAL K  NON-WETTABLE
   15      CONFINED      HARMONIC     1.000E+00    VERTICAL K  NON-WETTABLE
   16      CONFINED      HARMONIC     1.000E+00    VERTICAL K  NON-WETTABLE
   17      CONFINED      HARMONIC     1.000E+00    VERTICAL K  NON-WETTABLE
   18      CONFINED      HARMONIC     1.000E+00    VERTICAL K  NON-WETTABLE
   19      CONFINED      HARMONIC     1.000E+00    VERTICAL K  NON-WETTABLE
   20      CONFINED      HARMONIC     1.000E+00    VERTICAL K  NON-WETTABLE

     558900 ELEMENTS IN X ARRAY ARE USED BY LPF
        120 ELEMENTS IN IX ARRAY ARE USED BY LPF

 PCG2 -- CONJUGATE GRADIENT SOLUTION PACKAGE, VERSION 2.4, 12/29/98
 # PCG package for  SEAWAT, generated by Flopy.
 MAXIMUM OF     50 CALLS OF SOLUTION ROUTINE
 MAXIMUM OF     30 INTERNAL ITERATIONS PER CALL TO SOLUTION ROUTINE
 MATRIX PRECONDITIONING TYPE :    1
     375600 ELEMENTS IN X ARRAY ARE USED BY PCG
      10500 ELEMENTS IN IX ARRAY ARE USED BY PCG
     745200 ELEMENTS IN Z ARRAY ARE USED BY PCG

     934500  ELEMENTS OF X ARRAY USED OUT OF     934500
     745200  ELEMENTS OF Z ARRAY USED OUT OF     745200
      10620  ELEMENTS OF IX ARRAY USED OUT OF      10620
          0  ELEMENTS OF XHS ARRAY USED OUT OF          1



                                    SOLUTION BY THE CONJUGATE-GRADIENT METHOD
                                   -------------------------------------------
                    MAXIMUM NUMBER OF CALLS TO PCG ROUTINE =       50
                        MAXIMUM ITERATIONS PER CALL TO PCG =       30
                               MATRIX PRECONDITIONING TYPE =        1
        RELAXATION FACTOR (ONLY USED WITH PRECOND. TYPE 1) =    0.10000E+01
 PARAMETER OF POLYNOMIAL PRECOND. = 2 (2) OR IS CALCULATED :        0
                         HEAD CHANGE CRITERION FOR CLOSURE =    0.10000E-07
                     RESIDUAL CHANGE CRITERION FOR CLOSURE =    0.10000E-04
            PCG HEAD AND RESIDUAL CHANGE PRINTOUT INTERVAL =      999
     PRINTING FROM SOLVER IS LIMITED(1) OR SUPPRESSED (>1) =        3
                                         DAMPING PARAMETER =    0.10000E+01

 WETTING CAPABILITY IS NOT ACTIVE IN ANY LAYER



              HYD. COND. ALONG ROWS FOR LAYER   1
 READING ON UNIT   15 WITH FORMAT:          (345E15.6) 

      VERTICAL HYD. COND. =  0.500000     FOR LAYER   1

         SPECIFIC STORAGE =  1.000000E-05 FOR LAYER   1



              HYD. COND. ALONG ROWS FOR LAYER   2
 READING ON UNIT   15 WITH FORMAT:          (345E15.6) 

      VERTICAL HYD. COND. =  0.500000     FOR LAYER   2

         SPECIFIC STORAGE =  1.000000E-05 FOR LAYER   2



              HYD. COND. ALONG ROWS FOR LAYER   3
 READING ON UNIT   15 WITH FORMAT:          (345E15.6) 

      VERTICAL HYD. COND. =  0.500000     FOR LAYER   3

         SPECIFIC STORAGE =  1.000000E-05 FOR LAYER   3



              HYD. COND. ALONG ROWS FOR LAYER   4
 READING ON UNIT   15 WITH FORMAT:          (345E15.6) 

      VERTICAL HYD. COND. =  0.500000     FOR LAYER   4

         SPECIFIC STORAGE =  1.000000E-05 FOR LAYER   4



              HYD. COND. ALONG ROWS FOR LAYER   5
 READING ON UNIT   15 WITH FORMAT:          (345E15.6) 

      VERTICAL HYD. COND. =  0.500000     FOR LAYER   5

         SPECIFIC STORAGE =  1.000000E-05 FOR LAYER   5



              HYD. COND. ALONG ROWS FOR LAYER   6
 READING ON UNIT   15 WITH FORMAT:          (345E15.6) 

      VERTICAL HYD. COND. =  0.500000     FOR LAYER   6

         SPECIFIC STORAGE =  1.000000E-05 FOR LAYER   6



              HYD. COND. ALONG ROWS FOR LAYER   7
 READING ON UNIT   15 WITH FORMAT:          (345E15.6) 

      VERTICAL HYD. COND. =  0.500000     FOR LAYER   7

         SPECIFIC STORAGE =  1.000000E-05 FOR LAYER   7



              HYD. COND. ALONG ROWS FOR LAYER   8
 READING ON UNIT   15 WITH FORMAT:          (345E15.6) 

      VERTICAL HYD. COND. =  0.500000     FOR LAYER   8

         SPECIFIC STORAGE =  1.000000E-05 FOR LAYER   8



              HYD. COND. ALONG ROWS FOR LAYER   9
 READING ON UNIT   15 WITH FORMAT:          (345E15.6) 

      VERTICAL HYD. COND. =  0.500000     FOR LAYER   9

         SPECIFIC STORAGE =  1.000000E-05 FOR LAYER   9



              HYD. COND. ALONG ROWS FOR LAYER  10
 READING ON UNIT   15 WITH FORMAT:          (345E15.6) 

      VERTICAL HYD. COND. =  0.500000     FOR LAYER  10

         SPECIFIC STORAGE =  1.000000E-05 FOR LAYER  10



              HYD. COND. ALONG ROWS FOR LAYER  11
 READING ON UNIT   15 WITH FORMAT:          (345E15.6) 

      VERTICAL HYD. COND. =  0.500000     FOR LAYER  11

         SPECIFIC STORAGE =  1.000000E-05 FOR LAYER  11



              HYD. COND. ALONG ROWS FOR LAYER  12
 READING ON UNIT   15 WITH FORMAT:          (345E15.6) 

      VERTICAL HYD. COND. =  0.500000     FOR LAYER  12

         SPECIFIC STORAGE =  1.000000E-05 FOR LAYER  12



              HYD. COND. ALONG ROWS FOR LAYER  13
 READING ON UNIT   15 WITH FORMAT:          (345E15.6) 

      VERTICAL HYD. COND. =  0.500000     FOR LAYER  13

         SPECIFIC STORAGE =  1.000000E-05 FOR LAYER  13



              HYD. COND. ALONG ROWS FOR LAYER  14
 READING ON UNIT   15 WITH FORMAT:          (345E15.6) 

      VERTICAL HYD. COND. =  0.500000     FOR LAYER  14

         SPECIFIC STORAGE =  1.000000E-05 FOR LAYER  14



              HYD. COND. ALONG ROWS FOR LAYER  15
 READING ON UNIT   15 WITH FORMAT:          (345E15.6) 

      VERTICAL HYD. COND. =  0.500000     FOR LAYER  15

         SPECIFIC STORAGE =  1.000000E-05 FOR LAYER  15



              HYD. COND. ALONG ROWS FOR LAYER  16
 READING ON UNIT   15 WITH FORMAT:          (345E15.6) 

      VERTICAL HYD. COND. =  0.500000     FOR LAYER  16

         SPECIFIC STORAGE =  1.000000E-05 FOR LAYER  16



              HYD. COND. ALONG ROWS FOR LAYER  17
 READING ON UNIT   15 WITH FORMAT:          (345E15.6) 

      VERTICAL HYD. COND. =  0.500000     FOR LAYER  17

         SPECIFIC STORAGE =  1.000000E-05 FOR LAYER  17



              HYD. COND. ALONG ROWS FOR LAYER  18
 READING ON UNIT   15 WITH FORMAT:          (345E15.6) 

      VERTICAL HYD. COND. =  0.500000     FOR LAYER  18

         SPECIFIC STORAGE =  1.000000E-05 FOR LAYER  18



              HYD. COND. ALONG ROWS FOR LAYER  19
 READING ON UNIT   15 WITH FORMAT:          (345E15.6) 

      VERTICAL HYD. COND. =  0.500000     FOR LAYER  19

         SPECIFIC STORAGE =  1.000000E-05 FOR LAYER  19



              HYD. COND. ALONG ROWS FOR LAYER  20
 READING ON UNIT   15 WITH FORMAT:          (345E15.6) 

      VERTICAL HYD. COND. =  0.500000     FOR LAYER  20

         SPECIFIC STORAGE =  1.000000E-05 FOR LAYER  20
 BTN5 -- BASIC TRANSPORT PACKAGE, VERSION 5, OCTOBER 2006, INPUT READ FROM UNIT 31
    2804559 ELEMENTS OF THE  X ARRAY USED BY THE BTN PACKAGE
     186320 ELEMENTS OF THE IX ARRAY USED BY THE BTN PACKAGE

 FLOW MODEL IS TRANSIENT

 ADV5 -- ADVECTION PACKAGE, VERSION 5, FEBRUARY 2005, INPUT READ FROM UNIT 32
 ADVECTION IS SOLVED WITH THE UPSTREAM FINITE DIFFERENCE SCHEME
 COURANT NUMBER ALLOWED IN SOLVING THE ADVECTION TERM = 0.750    
          0 ELEMENTS OF THE  X ARRAY USED BY THE ADV PACKAGE
          0 ELEMENTS OF THE IX ARRAY USED BY THE ADV PACKAGE

 DSP5 -- DISPERSION PACKAGE, VERSION 5, OCTOBER 2006, INPUT READ FROM UNIT 33
    2049340 ELEMENTS OF THE  X ARRAY USED BY THE DSP PACKAGE
          0 ELEMENTS OF THE IX ARRAY USED BY THE DSP PACKAGE

 SSM5 -- SINK & SOURCE MIXING PACKAGE, VERSION 5, OCTOBER 2006, INPUT READ FROM UNIT 34
 HEADER LINE OF THE SSM PACKAGE INPUT FILE:
  F F F F F T F F F F F F F F F F                                                                                                                                                                        
 MAJOR STRESS COMPONENTS PRESENT IN THE FLOW MODEL:
  o GENERAL-HEAD-DEPENDENT BOUNDARY
 MAXIMUM NUMBER OF POINT SINKS/SOURCES =  337689
    4389957 ELEMENTS OF THE  X ARRAY USED BY THE SSM PACKAGE
          0 ELEMENTS OF THE IX ARRAY BY THE SSM PACKAGE

 GCG5 -- GENERALIZED CONJUGATE GRADIENT SOLVER PACKAGE, VERSION 5, FEBRUARY 2005 INPUT READ FROM UNIT 35
 MAXIMUM OF    1 OUTER ITERATIONS
        AND   50 INNER ITERATIONS ALLOWED FOR CLOSURE
 THE PRECONDITIONING TYPE SELECTED IS MODIFIED INCOMPLETE CHOLESKY (MIC).
 DISPERSION CROSS TERMS LUMPED INTO RIGHT-HAND-SIDE
    4098650 ELEMENTS OF THE  X ARRAY USED BY THE GCG PACKAGE
        150 ELEMENTS OF THE IX ARRAY USED BY THE GCG PACKAGE

 
 # BAS6 package for  SEAWAT, generated by Flopy.                                 
 THE FREE FORMAT OPTION HAS BEEN SELECTED
   20 LAYERS        27 ROWS       345 COLUMNS
   81 STRESS PERIOD(S) IN SIMULATION

 BAS6 -- BASIC PACKAGE, VERSION 6, 1/11/2000 INPUT READ FROM UNIT   13
        100 ELEMENTS IN IR ARRAY ARE USED BY BAS

 GHB6 -- GHB PACKAGE, VERSION 6, 1/11/2000 INPUT READ FROM UNIT   23
 # GHB package for  SEAWAT, generated by Flopy.
 No named parameters
 MAXIMUM OF   4277 ACTIVE GHB CELLS AT ONE TIME
      21385 ELEMENTS IN RX ARRAY ARE USED BY GHB

      21385  ELEMENTS OF RX ARRAY USED OUT OF      21385
          0  ELEMENTS OF RZ ARRAY USED OUT OF          1
        100  ELEMENTS OF IR ARRAY USED OUT OF        100
1
 # BAS6 package for  SEAWAT, generated by Flopy.                                 
                                                                                 



                     BOUNDARY ARRAY FOR LAYER   1
 READING ON UNIT   13 WITH FORMAT:            (345I10) 



                     BOUNDARY ARRAY FOR LAYER   2
 READING ON UNIT   13 WITH FORMAT:            (345I10) 



                     BOUNDARY ARRAY FOR LAYER   3
 READING ON UNIT   13 WITH FORMAT:            (345I10) 



                     BOUNDARY ARRAY FOR LAYER   4
 READING ON UNIT   13 WITH FORMAT:            (345I10) 



                     BOUNDARY ARRAY FOR LAYER   5
 READING ON UNIT   13 WITH FORMAT:            (345I10) 



                     BOUNDARY ARRAY FOR LAYER   6
 READING ON UNIT   13 WITH FORMAT:            (345I10) 



                     BOUNDARY ARRAY FOR LAYER   7
 READING ON UNIT   13 WITH FORMAT:            (345I10) 



                     BOUNDARY ARRAY FOR LAYER   8
 READING ON UNIT   13 WITH FORMAT:            (345I10) 



                     BOUNDARY ARRAY FOR LAYER   9
 READING ON UNIT   13 WITH FORMAT:            (345I10) 



                     BOUNDARY ARRAY FOR LAYER  10
 READING ON UNIT   13 WITH FORMAT:            (345I10) 



                     BOUNDARY ARRAY FOR LAYER  11
 READING ON UNIT   13 WITH FORMAT:            (345I10) 



                     BOUNDARY ARRAY FOR LAYER  12
 READING ON UNIT   13 WITH FORMAT:            (345I10) 



                     BOUNDARY ARRAY FOR LAYER  13
 READING ON UNIT   13 WITH FORMAT:            (345I10) 



                     BOUNDARY ARRAY FOR LAYER  14
 READING ON UNIT   13 WITH FORMAT:            (345I10) 



                     BOUNDARY ARRAY FOR LAYER  15
 READING ON UNIT   13 WITH FORMAT:            (345I10) 



                     BOUNDARY ARRAY FOR LAYER  16
 READING ON UNIT   13 WITH FORMAT:            (345I10) 



                     BOUNDARY ARRAY FOR LAYER  17
 READING ON UNIT   13 WITH FORMAT:            (345I10) 



                     BOUNDARY ARRAY FOR LAYER  18
 READING ON UNIT   13 WITH FORMAT:            (345I10) 



                     BOUNDARY ARRAY FOR LAYER  19
 READING ON UNIT   13 WITH FORMAT:            (345I10) 



                     BOUNDARY ARRAY FOR LAYER  20
 READING ON UNIT   13 WITH FORMAT:            (345I10) 

 AQUIFER HEAD WILL BE SET TO -999.99     AT ALL NO-FLOW NODES (IBOUND=0).



                       INITIAL HEAD FOR LAYER   1
 READING ON UNIT   13 WITH FORMAT:          (345E15.6) 



                       INITIAL HEAD FOR LAYER   2
 READING ON UNIT   13 WITH FORMAT:          (345E15.6) 



                       INITIAL HEAD FOR LAYER   3
 READING ON UNIT   13 WITH FORMAT:          (345E15.6) 



                       INITIAL HEAD FOR LAYER   4
 READING ON UNIT   13 WITH FORMAT:          (345E15.6) 



                       INITIAL HEAD FOR LAYER   5
 READING ON UNIT   13 WITH FORMAT:          (345E15.6) 



                       INITIAL HEAD FOR LAYER   6
 READING ON UNIT   13 WITH FORMAT:          (345E15.6) 



                       INITIAL HEAD FOR LAYER   7
 READING ON UNIT   13 WITH FORMAT:          (345E15.6) 



                       INITIAL HEAD FOR LAYER   8
 READING ON UNIT   13 WITH FORMAT:          (345E15.6) 



                       INITIAL HEAD FOR LAYER   9
 READING ON UNIT   13 WITH FORMAT:          (345E15.6) 



                       INITIAL HEAD FOR LAYER  10
 READING ON UNIT   13 WITH FORMAT:          (345E15.6) 



                       INITIAL HEAD FOR LAYER  11
 READING ON UNIT   13 WITH FORMAT:          (345E15.6) 



                       INITIAL HEAD FOR LAYER  12
 READING ON UNIT   13 WITH FORMAT:          (345E15.6) 



                       INITIAL HEAD FOR LAYER  13
 READING ON UNIT   13 WITH FORMAT:          (345E15.6) 



                       INITIAL HEAD FOR LAYER  14
 READING ON UNIT   13 WITH FORMAT:          (345E15.6) 



                       INITIAL HEAD FOR LAYER  15
 READING ON UNIT   13 WITH FORMAT:          (345E15.6) 



                       INITIAL HEAD FOR LAYER  16
 READING ON UNIT   13 WITH FORMAT:          (345E15.6) 



                       INITIAL HEAD FOR LAYER  17
 READING ON UNIT   13 WITH FORMAT:          (345E15.6) 



                       INITIAL HEAD FOR LAYER  18
 READING ON UNIT   13 WITH FORMAT:          (345E15.6) 



                       INITIAL HEAD FOR LAYER  19
 READING ON UNIT   13 WITH FORMAT:          (345E15.6) 



                       INITIAL HEAD FOR LAYER  20
 READING ON UNIT   13 WITH FORMAT:          (345E15.6) 
 # OC package for  SEAWAT, generated by Flopy.

 OUTPUT CONTROL IS SPECIFIED ONLY AT TIME STEPS FOR WHICH OUTPUT IS DESIRED
 COMPACT CELL-BY-CELL BUDGET FILES WILL BE WRITTEN
 AUXILIARY DATA WILL BE SAVED IN CELL-BY-CELL BUDGET FILES
 HEAD PRINT FORMAT CODE IS   0    DRAWDOWN PRINT FORMAT CODE IS   0
 HEADS WILL BE SAVED ON UNIT   51    DRAWDOWNS WILL BE SAVED ON UNIT    0


     0 GHB parameters
 LAYER NUMBER  AQUIFER TYPE
 ------------  ------------
       1            0
       2            0
       3            0
       4            0
       5            0
       6            0
       7            0
       8            0
       9            0
      10            0
      11            0
      12            0
      13            0
      14            0
      15            0
      16            0
      17            0
      18            0
      19            0
      20            0
                                       WIDTH ALONG ROWS (DELR)  =   60.96000    
                                       WIDTH ALONG COLS (DELC)  =   60.96000    

                           TOP ELEV. OF 1ST LAYER   READ ON UNIT 31 USING FORMAT: "         (345E15.6) "
                           -----------------------------------------------------------------------------

                     CELL THICKNESS (DZ)      FOR LAYER  1 READ ON UNIT 31 USING FORMAT: "         (345E15.6) "
                     ------------------------------------------------------------------------------------------
                                       CELL THICKNESS (DZ)      =   7.684200     FOR LAYER  2
                                       CELL THICKNESS (DZ)      =   7.684200     FOR LAYER  3
                                       CELL THICKNESS (DZ)      =   7.684200     FOR LAYER  4
                                       CELL THICKNESS (DZ)      =   7.684200     FOR LAYER  5
                                       CELL THICKNESS (DZ)      =   7.684200     FOR LAYER  6
                                       CELL THICKNESS (DZ)      =   7.684200     FOR LAYER  7
                                       CELL THICKNESS (DZ)      =   7.684200     FOR LAYER  8
                                       CELL THICKNESS (DZ)      =   7.684200     FOR LAYER  9
                                       CELL THICKNESS (DZ)      =   7.684200     FOR LAYER 10
                                       CELL THICKNESS (DZ)      =   7.684200     FOR LAYER 11
                                       CELL THICKNESS (DZ)      =   7.684200     FOR LAYER 12
                                       CELL THICKNESS (DZ)      =   7.684200     FOR LAYER 13
                                       CELL THICKNESS (DZ)      =   7.684200     FOR LAYER 14
                                       CELL THICKNESS (DZ)      =   7.684200     FOR LAYER 15
                                       CELL THICKNESS (DZ)      =   7.684200     FOR LAYER 16
                                       CELL THICKNESS (DZ)      =   7.684200     FOR LAYER 17
                                       CELL THICKNESS (DZ)      =   7.684200     FOR LAYER 18
                                       CELL THICKNESS (DZ)      =   7.684200     FOR LAYER 19
                                       CELL THICKNESS (DZ)      =   7.684200     FOR LAYER 20
                                       POROSITY                 =  0.3000000     FOR LAYER  1
                                       POROSITY                 =  0.3000000     FOR LAYER  2
                                       POROSITY                 =  0.3000000     FOR LAYER  3
                                       POROSITY                 =  0.3000000     FOR LAYER  4
                                       POROSITY                 =  0.3000000     FOR LAYER  5
                                       POROSITY                 =  0.3000000     FOR LAYER  6
                                       POROSITY                 =  0.3000000     FOR LAYER  7
                                       POROSITY                 =  0.3000000     FOR LAYER  8
                                       POROSITY                 =  0.3000000     FOR LAYER  9
                                       POROSITY                 =  0.3000000     FOR LAYER 10
                                       POROSITY                 =  0.3000000     FOR LAYER 11
                                       POROSITY                 =  0.3000000     FOR LAYER 12
                                       POROSITY                 =  0.3000000     FOR LAYER 13
                                       POROSITY                 =  0.3000000     FOR LAYER 14
                                       POROSITY                 =  0.3000000     FOR LAYER 15
                                       POROSITY                 =  0.3000000     FOR LAYER 16
                                       POROSITY                 =  0.3000000     FOR LAYER 17
                                       POROSITY                 =  0.3000000     FOR LAYER 18
                                       POROSITY                 =  0.3000000     FOR LAYER 19
                                       POROSITY                 =  0.3000000     FOR LAYER 20

                     CONCN. BOUNDARY ARRAY    FOR LAYER  1 READ ON UNIT 31 USING FORMAT: "           (345I10) "
                     ------------------------------------------------------------------------------------------

                     CONCN. BOUNDARY ARRAY    FOR LAYER  2 READ ON UNIT 31 USING FORMAT: "           (345I10) "
                     ------------------------------------------------------------------------------------------

                     CONCN. BOUNDARY ARRAY    FOR LAYER  3 READ ON UNIT 31 USING FORMAT: "           (345I10) "
                     ------------------------------------------------------------------------------------------

                     CONCN. BOUNDARY ARRAY    FOR LAYER  4 READ ON UNIT 31 USING FORMAT: "           (345I10) "
                     ------------------------------------------------------------------------------------------

                     CONCN. BOUNDARY ARRAY    FOR LAYER  5 READ ON UNIT 31 USING FORMAT: "           (345I10) "
                     ------------------------------------------------------------------------------------------

                     CONCN. BOUNDARY ARRAY    FOR LAYER  6 READ ON UNIT 31 USING FORMAT: "           (345I10) "
                     ------------------------------------------------------------------------------------------

                     CONCN. BOUNDARY ARRAY    FOR LAYER  7 READ ON UNIT 31 USING FORMAT: "           (345I10) "
                     ------------------------------------------------------------------------------------------

                     CONCN. BOUNDARY ARRAY    FOR LAYER  8 READ ON UNIT 31 USING FORMAT: "           (345I10) "
                     ------------------------------------------------------------------------------------------

                     CONCN. BOUNDARY ARRAY    FOR LAYER  9 READ ON UNIT 31 USING FORMAT: "           (345I10) "
                     ------------------------------------------------------------------------------------------

                     CONCN. BOUNDARY ARRAY    FOR LAYER 10 READ ON UNIT 31 USING FORMAT: "           (345I10) "
                     ------------------------------------------------------------------------------------------

                     CONCN. BOUNDARY ARRAY    FOR LAYER 11 READ ON UNIT 31 USING FORMAT: "           (345I10) "
                     ------------------------------------------------------------------------------------------

                     CONCN. BOUNDARY ARRAY    FOR LAYER 12 READ ON UNIT 31 USING FORMAT: "           (345I10) "
                     ------------------------------------------------------------------------------------------

                     CONCN. BOUNDARY ARRAY    FOR LAYER 13 READ ON UNIT 31 USING FORMAT: "           (345I10) "
                     ------------------------------------------------------------------------------------------

                     CONCN. BOUNDARY ARRAY    FOR LAYER 14 READ ON UNIT 31 USING FORMAT: "           (345I10) "
                     ------------------------------------------------------------------------------------------

                     CONCN. BOUNDARY ARRAY    FOR LAYER 15 READ ON UNIT 31 USING FORMAT: "           (345I10) "
                     ------------------------------------------------------------------------------------------

                     CONCN. BOUNDARY ARRAY    FOR LAYER 16 READ ON UNIT 31 USING FORMAT: "           (345I10) "
                     ------------------------------------------------------------------------------------------

                     CONCN. BOUNDARY ARRAY    FOR LAYER 17 READ ON UNIT 31 USING FORMAT: "           (345I10) "
                     ------------------------------------------------------------------------------------------

                     CONCN. BOUNDARY ARRAY    FOR LAYER 18 READ ON UNIT 31 USING FORMAT: "           (345I10) "
                     ------------------------------------------------------------------------------------------

                     CONCN. BOUNDARY ARRAY    FOR LAYER 19 READ ON UNIT 31 USING FORMAT: "           (345I10) "
                     ------------------------------------------------------------------------------------------

                     CONCN. BOUNDARY ARRAY    FOR LAYER 20 READ ON UNIT 31 USING FORMAT: "           (345I10) "
                     ------------------------------------------------------------------------------------------

                     INITIAL CONC.: COMP.  01 FOR LAYER  1 READ ON UNIT 31 USING FORMAT: "         (345E15.6) "
                     ------------------------------------------------------------------------------------------

                     INITIAL CONC.: COMP.  01 FOR LAYER  2 READ ON UNIT 31 USING FORMAT: "         (345E15.6) "
                     ------------------------------------------------------------------------------------------

                     INITIAL CONC.: COMP.  01 FOR LAYER  3 READ ON UNIT 31 USING FORMAT: "         (345E15.6) "
                     ------------------------------------------------------------------------------------------

                     INITIAL CONC.: COMP.  01 FOR LAYER  4 READ ON UNIT 31 USING FORMAT: "         (345E15.6) "
                     ------------------------------------------------------------------------------------------

                     INITIAL CONC.: COMP.  01 FOR LAYER  5 READ ON UNIT 31 USING FORMAT: "         (345E15.6) "
                     ------------------------------------------------------------------------------------------

                     INITIAL CONC.: COMP.  01 FOR LAYER  6 READ ON UNIT 31 USING FORMAT: "         (345E15.6) "
                     ------------------------------------------------------------------------------------------

                     INITIAL CONC.: COMP.  01 FOR LAYER  7 READ ON UNIT 31 USING FORMAT: "         (345E15.6) "
                     ------------------------------------------------------------------------------------------

                     INITIAL CONC.: COMP.  01 FOR LAYER  8 READ ON UNIT 31 USING FORMAT: "         (345E15.6) "
                     ------------------------------------------------------------------------------------------

                     INITIAL CONC.: COMP.  01 FOR LAYER  9 READ ON UNIT 31 USING FORMAT: "         (345E15.6) "
                     ------------------------------------------------------------------------------------------

                     INITIAL CONC.: COMP.  01 FOR LAYER 10 READ ON UNIT 31 USING FORMAT: "         (345E15.6) "
                     ------------------------------------------------------------------------------------------

                     INITIAL CONC.: COMP.  01 FOR LAYER 11 READ ON UNIT 31 USING FORMAT: "         (345E15.6) "
                     ------------------------------------------------------------------------------------------

                     INITIAL CONC.: COMP.  01 FOR LAYER 12 READ ON UNIT 31 USING FORMAT: "         (345E15.6) "
                     ------------------------------------------------------------------------------------------

                     INITIAL CONC.: COMP.  01 FOR LAYER 13 READ ON UNIT 31 USING FORMAT: "         (345E15.6) "
                     ------------------------------------------------------------------------------------------

                     INITIAL CONC.: COMP.  01 FOR LAYER 14 READ ON UNIT 31 USING FORMAT: "         (345E15.6) "
                     ------------------------------------------------------------------------------------------

                     INITIAL CONC.: COMP.  01 FOR LAYER 15 READ ON UNIT 31 USING FORMAT: "         (345E15.6) "
                     ------------------------------------------------------------------------------------------

                     INITIAL CONC.: COMP.  01 FOR LAYER 16 READ ON UNIT 31 USING FORMAT: "         (345E15.6) "
                     ------------------------------------------------------------------------------------------

                     INITIAL CONC.: COMP.  01 FOR LAYER 17 READ ON UNIT 31 USING FORMAT: "         (345E15.6) "
                     ------------------------------------------------------------------------------------------

                     INITIAL CONC.: COMP.  01 FOR LAYER 18 READ ON UNIT 31 USING FORMAT: "         (345E15.6) "
                     ------------------------------------------------------------------------------------------

                     INITIAL CONC.: COMP.  01 FOR LAYER 19 READ ON UNIT 31 USING FORMAT: "         (345E15.6) "
                     ------------------------------------------------------------------------------------------

                     INITIAL CONC.: COMP.  01 FOR LAYER 20 READ ON UNIT 31 USING FORMAT: "         (345E15.6) "
                     ------------------------------------------------------------------------------------------

 VALUE INDICATING INACTIVE CONCENTRATION CELLS =   0.1000000E+31
 MINIMUM SATURATED THICKNESS [THKMIN] ALLOWED =  0.0100 OF TOTAL CELL THICKNESS


 OUTPUT CONTROL OPTIONS
 ----------------------

 DO NOT PRINT CELL CONCENTRATION
 DO NOT PRINT PARTICLE NUMBER IN EACH CELL
 DO NOT PRINT RETARDATION FACTOR
 DO NOT PRINT DISPERSION COEFFICIENT
 SAVE DISSOLVED PHASE CONCENTRATIONS IN UNFORMATTED FILES [MT3Dnnn.UCN]
  FOR EACH SPECIES ON UNITS 201 AND ABOVE

 NUMBER OF TIMES AT WHICH SIMULATION RESULTS ARE SAVED =   81
 TOTAL ELAPSED TIMES AT WHICH SIMULATION RESULTS ARE SAVED: 
    182.50       365.00       547.50       730.00       912.50       1095.0       1277.5       1460.0    
    1642.5       1825.0       2007.5       2190.0       2372.5       2555.0       2737.5       2920.0    
    3102.5       3285.0       3467.5       3650.0       3832.5       4015.0       4197.5       4380.0    
    4562.5       4745.0       4927.5       5110.0       5292.5       5475.0       5657.5       5840.0    
    6022.5       6205.0       6387.5       6570.0       6752.5       6935.0       7117.5       7300.0    
    7482.5       7665.0       7847.5       8030.0       8212.5       8395.0       8577.5       8760.0    
    8942.5       9125.0       9307.5       9490.0       9672.5       9855.0       10038.       10220.    
    10402.       10585.       10768.       10950.       11132.       11315.       11498.       11680.    
    11862.       12045.       12228.       12410.       12592.       12775.       12958.       13140.    
    13322.       13505.       13688.       13870.       14052.       14235.       14418.       14600.    
    14782.    

 NUMBER OF OBSERVATION POINTS =    0

 SAVE ONE-LINE SUMMARY OF MASS BUDGETS IN FILES [MT3Dnnn.MAS]
  FOR EACH SPECIES ON UNITS 601 AND ABOVE, EVERY  1 TRANSPORT STEPS

 MAXIMUM LENGTH ALONG THE X (J) AXIS =   21031.20    
 MAXIMUM LENGTH ALONG THE Y (I) AXIS =   1645.920    
 MAXIMUM LENGTH ALONG THE Z (K) AXIS =   177.9216    


 ADVECTION SOLUTION OPTIONS
 --------------------------

 ADVECTION IS SOLVED WITH THE UPSTREAM FINITE DIFFERENCE SCHEME
 COURANT NUMBER ALLOWED IN SOLVING THE ADVECTION TERM = 0.750    


 DISPERSION INPUT PARAMETERS
 ---------------------------

                                       LONG. DISPERSIVITY (AL)  =   20.00000     FOR LAYER  1
                                       LONG. DISPERSIVITY (AL)  =   20.00000     FOR LAYER  2
                                       LONG. DISPERSIVITY (AL)  =   20.00000     FOR LAYER  3
                                       LONG. DISPERSIVITY (AL)  =   20.00000     FOR LAYER  4
                                       LONG. DISPERSIVITY (AL)  =   20.00000     FOR LAYER  5
                                       LONG. DISPERSIVITY (AL)  =   20.00000     FOR LAYER  6
                                       LONG. DISPERSIVITY (AL)  =   20.00000     FOR LAYER  7
                                       LONG. DISPERSIVITY (AL)  =   20.00000     FOR LAYER  8
                                       LONG. DISPERSIVITY (AL)  =   20.00000     FOR LAYER  9
                                       LONG. DISPERSIVITY (AL)  =   20.00000     FOR LAYER 10
                                       LONG. DISPERSIVITY (AL)  =   20.00000     FOR LAYER 11
                                       LONG. DISPERSIVITY (AL)  =   20.00000     FOR LAYER 12
                                       LONG. DISPERSIVITY (AL)  =   20.00000     FOR LAYER 13
                                       LONG. DISPERSIVITY (AL)  =   20.00000     FOR LAYER 14
                                       LONG. DISPERSIVITY (AL)  =   20.00000     FOR LAYER 15
                                       LONG. DISPERSIVITY (AL)  =   20.00000     FOR LAYER 16
                                       LONG. DISPERSIVITY (AL)  =   20.00000     FOR LAYER 17
                                       LONG. DISPERSIVITY (AL)  =   20.00000     FOR LAYER 18
                                       LONG. DISPERSIVITY (AL)  =   20.00000     FOR LAYER 19
                                       LONG. DISPERSIVITY (AL)  =   20.00000     FOR LAYER 20
                                       H. TRANS./LONG. DISP.    =  0.1000000    
                                       V. TRANS./LONG. DISP.    =  0.1000000E-01
                                       DIFFUSION COEFFICIENT    =  0.2000000E-08



                                               SOLUTION BY THE GENERALIZED CONJUGATE GRADIENT METHOD
                                               -----------------------------------------------------
                                     MAXIMUM OUTER ITERATIONS ALLOWED FOR CLOSURE =        1
                                     MAXIMUM INNER ITERATIONS ALLOWED FOR CLOSURE =       50
                                                    PRECONDITIONING TYPE SELECTED =    3
                                                           ACCELERATION PARAMETER =     1.0000    
                                       CONCENTRATION CHANGE CRITERION FOR CLOSURE =    0.10000E-03
                                       GCG CONCENTRATION CHANGE PRINTOUT INTERVAL =      999


                                   ++++++++++++++++++++++++++++++++++++++++++++++++++++++++++++++
                                                       STRESS PERIOD NO.  001
                                   ++++++++++++++++++++++++++++++++++++++++++++++++++++++++++++++


 LENGTH OF CURRENT STRESS PERIOD =   182.5000    
 NUMBER OF TIME STEPS FOR CURRENT STRESS PERIOD =    1
 TIME STEP MULTIPLIER USED IN FLOW SOLUTION =   1.100000    
 USER-SPECIFIED TRANSPORT STEPSIZE =   0.000000    D   
 MAXIMUM NUMBER OF TRANSPORT STEPS ALLOWED  IN ONE FLOW TIME STEP =     50000
 MULTIPLIER FOR SUCCESSIVE TRANSPORT STEPS  [USED IN IMPLICIT SCHEMES] =     1.000
 MAXIMUM TRANSPORT STEP SIZE  [USED IN IMPLICIT SCHEMES] =   0.000000    D   
1
                            STRESS PERIOD NO.    1, LENGTH =   182.5000    
                            -----------------------------------------------

                              NUMBER OF TIME STEPS =     1

                               MULTIPLIER FOR DELT =     1.100

                            INITIAL TIME STEP SIZE =   182.5000    

       NO    LAYER   ROW   COLUMN   CONCENTRATION       TYPE            COMPONENT
       1       1       1     126       35.00010         HEAD DEP BOUND      1
       2       1       1     127       35.00010         HEAD DEP BOUND      1
       3       1       1     128       35.00010         HEAD DEP BOUND      1
       4       1       1     129       35.00010         HEAD DEP BOUND      1
       5       1       1     130       35.00010         HEAD DEP BOUND      1
       6       1       1     131       35.00010         HEAD DEP BOUND      1
       7       1       1     132       35.00010         HEAD DEP BOUND      1
       8       1       1     133       35.00010         HEAD DEP BOUND      1
       9       1       1     134       35.00010         HEAD DEP BOUND      1
      10       1       1     135       35.00010         HEAD DEP BOUND      1
      11       1       1     136       35.00010         HEAD DEP BOUND      1
      12       1       1     137       35.00010         HEAD DEP BOUND      1
      13       1       1     138       35.00010         HEAD DEP BOUND      1
      14       1       1     139       35.00010         HEAD DEP BOUND      1
      15       1       2     126       35.00010         HEAD DEP BOUND      1
      16       1       2     127       35.00010         HEAD DEP BOUND      1
      17       1       2     128       35.00010         HEAD DEP BOUND      1
      18       1       2     129       35.00010         HEAD DEP BOUND      1
      19       1       2     130       35.00010         HEAD DEP BOUND      1
      20       1       2     131       35.00010         HEAD DEP BOUND      1
      21       1       2     132       35.00010         HEAD DEP BOUND      1
      22       1       2     133       35.00010         HEAD DEP BOUND      1
      23       1       2     134       35.00010         HEAD DEP BOUND      1
      24       1       2     135       35.00010         HEAD DEP BOUND      1
      25       1       2     136       35.00010         HEAD DEP BOUND      1
      26       1       2     137       35.00010         HEAD DEP BOUND      1
      27       1       2     138       35.00010         HEAD DEP BOUND      1
      28       1       3     127       35.00010         HEAD DEP BOUND      1
      29       1       3     128       35.00010         HEAD DEP BOUND      1
      30       1       3     129       35.00010         HEAD DEP BOUND      1
      31       1       3     130       35.00010         HEAD DEP BOUND      1
      32       1       3     131       35.00010         HEAD DEP BOUND      1
      33       1       3     132       35.00010         HEAD DEP BOUND      1
      34       1       3     133       35.00010         HEAD DEP BOUND      1
      35       1       3     134       35.00010         HEAD DEP BOUND      1
      36       1       3     135       35.00010         HEAD DEP BOUND      1
      37       1       3     136       35.00010         HEAD DEP BOUND      1
      38       1       3     137       35.00010         HEAD DEP BOUND      1
      39       1       3     138       35.00010         HEAD DEP BOUND      1
      40       1       4     127       35.00010         HEAD DEP BOUND      1
      41       1       4     128       35.00010         HEAD DEP BOUND      1
      42       1       4     129       35.00010         HEAD DEP BOUND      1
      43       1       4     130       35.00010         HEAD DEP BOUND      1
      44       1       4     131       35.00010         HEAD DEP BOUND      1
      45       1       4     132       35.00010         HEAD DEP BOUND      1
      46       1       4     133       35.00010         HEAD DEP BOUND      1
      47       1       4     134       35.00010         HEAD DEP BOUND      1
      48       1       4     135       35.00010         HEAD DEP BOUND      1
      49       1       4     136       35.00010         HEAD DEP BOUND      1
      50       1       4     137       35.00010         HEAD DEP BOUND      1
      51       1       4     138       35.00010         HEAD DEP BOUND      1
      52       1       5     128       35.00010         HEAD DEP BOUND      1
      53       1       5     129       35.00010         HEAD DEP BOUND      1
      54       1       5     130       35.00010         HEAD DEP BOUND      1
      55       1       5     131       35.00010         HEAD DEP BOUND      1
      56       1       5     132       35.00010         HEAD DEP BOUND      1
      57       1       5     133       35.00010         HEAD DEP BOUND      1
      58       1       5     134       35.00010         HEAD DEP BOUND      1
      59       1       5     135       35.00010         HEAD DEP BOUND      1
      60       1       5     136       35.00010         HEAD DEP BOUND      1
      61       1       5     137       35.00010         HEAD DEP BOUND      1
      62       1       5     138       35.00010         HEAD DEP BOUND      1
      63       1       5     139       35.00010         HEAD DEP BOUND      1
      64       1       6     129       35.00010         HEAD DEP BOUND      1
      65       1       6     130       35.00010         HEAD DEP BOUND      1
      66       1       6     131       35.00010         HEAD DEP BOUND      1
      67       1       6     132       35.00010         HEAD DEP BOUND      1
      68       1       6     133       35.00010         HEAD DEP BOUND      1
      69       1       6     134       35.00010         HEAD DEP BOUND      1
      70       1       6     135       35.00010         HEAD DEP BOUND      1
      71       1       6     136       35.00010         HEAD DEP BOUND      1
      72       1       6     137       35.00010         HEAD DEP BOUND      1
      73       1       6     138       35.00010         HEAD DEP BOUND      1
      74       1       7     129       35.00010         HEAD DEP BOUND      1
      75       1       7     130       35.00010         HEAD DEP BOUND      1
      76       1       7     131       35.00010         HEAD DEP BOUND      1
      77       1       7     132       35.00010         HEAD DEP BOUND      1
      78       1       7     133       35.00010         HEAD DEP BOUND      1
      79       1       7     134       35.00010         HEAD DEP BOUND      1
      80       1       7     135       35.00010         HEAD DEP BOUND      1
      81       1       7     136       35.00010         HEAD DEP BOUND      1
      82       1       7     137       35.00010         HEAD DEP BOUND      1
      83       1       7     138       35.00010         HEAD DEP BOUND      1
      84       1       7     139       35.00010         HEAD DEP BOUND      1
      85       1       8     130       35.00010         HEAD DEP BOUND      1
      86       1       8     131       35.00010         HEAD DEP BOUND      1
      87       1       8     132       35.00010         HEAD DEP BOUND      1
      88       1       8     133       35.00010         HEAD DEP BOUND      1
      89       1       8     134       35.00010         HEAD DEP BOUND      1
      90       1       8     135       35.00010         HEAD DEP BOUND      1
      91       1       8     136       35.00010         HEAD DEP BOUND      1
      92       1       8     137       35.00010         HEAD DEP BOUND      1
      93       1       8     138       35.00010         HEAD DEP BOUND      1
      94       1       8     139       35.00010         HEAD DEP BOUND      1
      95       1       9     130       35.00010         HEAD DEP BOUND      1
      96       1       9     131       35.00010         HEAD DEP BOUND      1
      97       1       9     132       35.00010         HEAD DEP BOUND      1
      98       1       9     133       35.00010         HEAD DEP BOUND      1
      99       1       9     134       35.00010         HEAD DEP BOUND      1
     100       1       9     135       35.00010         HEAD DEP BOUND      1
     101       1       9     136       35.00010         HEAD DEP BOUND      1
     102       1       9     137       35.00010         HEAD DEP BOUND      1
     103       1       9     138       35.00010         HEAD DEP BOUND      1
     104       1       9     139       35.00010         HEAD DEP BOUND      1
     105       1      10     130       35.00010         HEAD DEP BOUND      1
     106       1      10     131       35.00010         HEAD DEP BOUND      1
     107       1      10     132       35.00010         HEAD DEP BOUND      1
     108       1      10     133       35.00010         HEAD DEP BOUND      1
     109       1      10     134       35.00010         HEAD DEP BOUND      1
     110       1      10     135       35.00010         HEAD DEP BOUND      1
     111       1      10     136       35.00010         HEAD DEP BOUND      1
     112       1      10     137       35.00010         HEAD DEP BOUND      1
     113       1      10     138       35.00010         HEAD DEP BOUND      1
     114       1      10     139       35.00010         HEAD DEP BOUND      1
     115       1      10     140       35.00010         HEAD DEP BOUND      1
     116       1      11     129       35.00010         HEAD DEP BOUND      1
     117       1      11     130       35.00010         HEAD DEP BOUND      1
     118       1      11     131       35.00010         HEAD DEP BOUND      1
     119       1      11     132       35.00010         HEAD DEP BOUND      1
     120       1      11     133       35.00010         HEAD DEP BOUND      1
     121       1      11     134       35.00010         HEAD DEP BOUND      1
     122       1      11     135       35.00010         HEAD DEP BOUND      1
     123       1      11     136       35.00010         HEAD DEP BOUND      1
     124       1      11     137       35.00010         HEAD DEP BOUND      1
     125       1      11     138       35.00010         HEAD DEP BOUND      1
     126       1      11     139       35.00010         HEAD DEP BOUND      1
     127       1      11     140       35.00010         HEAD DEP BOUND      1
     128       1      12     129       35.00010         HEAD DEP BOUND      1
     129       1      12     130       35.00010         HEAD DEP BOUND      1
     130       1      12     131       35.00010         HEAD DEP BOUND      1
     131       1      12     132       35.00010         HEAD DEP BOUND      1
     132       1      12     133       35.00010         HEAD DEP BOUND      1
     133       1      12     134       35.00010         HEAD DEP BOUND      1
     134       1      12     135       35.00010         HEAD DEP BOUND      1
     135       1      12     136       35.00010         HEAD DEP BOUND      1
     136       1      12     137       35.00010         HEAD DEP BOUND      1
     137       1      12     138       35.00010         HEAD DEP BOUND      1
     138       1      12     139       35.00010         HEAD DEP BOUND      1
     139       1      12     140       35.00010         HEAD DEP BOUND      1
     140       1      13     131       35.00010         HEAD DEP BOUND      1
     141       1      13     132       35.00010         HEAD DEP BOUND      1
     142       1      13     133       35.00010         HEAD DEP BOUND      1
     143       1      13     134       35.00010         HEAD DEP BOUND      1
     144       1      13     135       35.00010         HEAD DEP BOUND      1
     145       1      13     136       35.00010         HEAD DEP BOUND      1
     146       1      13     137       35.00010         HEAD DEP BOUND      1
     147       1      13     138       35.00010         HEAD DEP BOUND      1
     148       1      13     139       35.00010         HEAD DEP BOUND      1
     149       1      13     140       35.00010         HEAD DEP BOUND      1
     150       1      14     131       35.00010         HEAD DEP BOUND      1
     151       1      14     132       35.00010         HEAD DEP BOUND      1
     152       1      14     133       35.00010         HEAD DEP BOUND      1
     153       1      14     134       35.00010         HEAD DEP BOUND      1
     154       1      14     135       35.00010         HEAD DEP BOUND      1
     155       1      14     136       35.00010         HEAD DEP BOUND      1
     156       1      14     137       35.00010         HEAD DEP BOUND      1
     157       1      14     138       35.00010         HEAD DEP BOUND      1
     158       1      14     139       35.00010         HEAD DEP BOUND      1
     159       1      14     140       35.00010         HEAD DEP BOUND      1
     160       1      15     132       35.00010         HEAD DEP BOUND      1
     161       1      15     133       35.00010         HEAD DEP BOUND      1
     162       1      15     134       35.00010         HEAD DEP BOUND      1
     163       1      15     135       35.00010         HEAD DEP BOUND      1
     164       1      15     136       35.00010         HEAD DEP BOUND      1
     165       1      15     137       35.00010         HEAD DEP BOUND      1
     166       1      15     138       35.00010         HEAD DEP BOUND      1
     167       1      15     139       35.00010         HEAD DEP BOUND      1
     168       1      15     140       35.00010         HEAD DEP BOUND      1
     169       1      16     132       35.00010         HEAD DEP BOUND      1
     170       1      16     133       35.00010         HEAD DEP BOUND      1
     171       1      16     134       35.00010         HEAD DEP BOUND      1
     172       1      16     135       35.00010         HEAD DEP BOUND      1
     173       1      16     136       35.00010         HEAD DEP BOUND      1
     174       1      16     137       35.00010         HEAD DEP BOUND      1
     175       1      16     138       35.00010         HEAD DEP BOUND      1
     176       1      16     139       35.00010         HEAD DEP BOUND      1
     177       1      16     140       35.00010         HEAD DEP BOUND      1
     178       1      16     141       35.00010         HEAD DEP BOUND      1
     179       1      17     132       35.00010         HEAD DEP BOUND      1
     180       1      17     133       35.00010         HEAD DEP BOUND      1
     181       1      17     134       35.00010         HEAD DEP BOUND      1
     182       1      17     135       35.00010         HEAD DEP BOUND      1
     183       1      17     136       35.00010         HEAD DEP BOUND      1
     184       1      17     137       35.00010         HEAD DEP BOUND      1
     185       1      17     138       35.00010         HEAD DEP BOUND      1
     186       1      17     139       35.00010         HEAD DEP BOUND      1
     187       1      17     140       35.00010         HEAD DEP BOUND      1
     188       1      17     141       35.00010         HEAD DEP BOUND      1
     189       1      18     133       35.00010         HEAD DEP BOUND      1
     190       1      18     134       35.00010         HEAD DEP BOUND      1
     191       1      18     135       35.00010         HEAD DEP BOUND      1
     192       1      18     136       35.00010         HEAD DEP BOUND      1
     193       1      18     137       35.00010         HEAD DEP BOUND      1
     194       1      18     138       35.00010         HEAD DEP BOUND      1
     195       1      18     139       35.00010         HEAD DEP BOUND      1
     196       1      18     140       35.00010         HEAD DEP BOUND      1
     197       1      18     141       35.00010         HEAD DEP BOUND      1
     198       1      19     134       35.00010         HEAD DEP BOUND      1
     199       1      19     135       35.00010         HEAD DEP BOUND      1
     200       1      19     136       35.00010         HEAD DEP BOUND      1
     201       1      19     137       35.00010         HEAD DEP BOUND      1
     202       1      19     138       35.00010         HEAD DEP BOUND      1
     203       1      19     139       35.00010         HEAD DEP BOUND      1
     204       1      19     140       35.00010         HEAD DEP BOUND      1
     205       1      19     141       35.00010         HEAD DEP BOUND      1
     206       1      20     134       35.00010         HEAD DEP BOUND      1
     207       1      20     135       35.00010         HEAD DEP BOUND      1
     208       1      20     136       35.00010         HEAD DEP BOUND      1
     209       1      20     137       35.00010         HEAD DEP BOUND      1
     210       1      20     138       35.00010         HEAD DEP BOUND      1
     211       1      20     139       35.00010         HEAD DEP BOUND      1
     212       1      20     140       35.00010         HEAD DEP BOUND      1
     213       1      20     141       35.00010         HEAD DEP BOUND      1
     214       1      21     134       35.00010         HEAD DEP BOUND      1
     215       1      21     135       35.00010         HEAD DEP BOUND      1
     216       1      21     136       35.00010         HEAD DEP BOUND      1
     217       1      21     137       35.00010         HEAD DEP BOUND      1
     218       1      21     138       35.00010         HEAD DEP BOUND      1
     219       1      21     139       35.00010         HEAD DEP BOUND      1
     220       1      21     140       35.00010         HEAD DEP BOUND      1
     221       1      21     141       35.00010         HEAD DEP BOUND      1
     222       1      21     142       35.00010         HEAD DEP BOUND      1
     223       1      22     135       35.00010         HEAD DEP BOUND      1
     224       1      22     136       35.00010         HEAD DEP BOUND      1
     225       1      22     137       35.00010         HEAD DEP BOUND      1
     226       1      22     138       35.00010         HEAD DEP BOUND      1
     227       1      22     139       35.00010         HEAD DEP BOUND      1
     228       1      22     140       35.00010         HEAD DEP BOUND      1
     229       1      22     141       35.00010         HEAD DEP BOUND      1
     230       1      22     142       35.00010         HEAD DEP BOUND      1
     231       1      23     135       35.00010         HEAD DEP BOUND      1
     232       1      23     136       35.00010         HEAD DEP BOUND      1
     233       1      23     137       35.00010         HEAD DEP BOUND      1
     234       1      23     138       35.00010         HEAD DEP BOUND      1
     235       1      23     139       35.00010         HEAD DEP BOUND      1
     236       1      23     140       35.00010         HEAD DEP BOUND      1
     237       1      23     141       35.00010         HEAD DEP BOUND      1
     238       1      23     142       35.00010         HEAD DEP BOUND      1
     239       1      24     136       35.00010         HEAD DEP BOUND      1
     240       1      24     137       35.00010         HEAD DEP BOUND      1
     241       1      24     138       35.00010         HEAD DEP BOUND      1
     242       1      24     139       35.00010         HEAD DEP BOUND      1
     243       1      24     140       35.00010         HEAD DEP BOUND      1
     244       1      24     141       35.00010         HEAD DEP BOUND      1
     245       1      24     142       35.00010         HEAD DEP BOUND      1
     246       1      24     143       35.00010         HEAD DEP BOUND      1
     247       1      25     136       35.00010         HEAD DEP BOUND      1
     248       1      25     137       35.00010         HEAD DEP BOUND      1
     249       1      25     138       35.00010         HEAD DEP BOUND      1
     250       1      25     139       35.00010         HEAD DEP BOUND      1
     251       1      25     140       35.00010         HEAD DEP BOUND      1
     252       1      25     141       35.00010         HEAD DEP BOUND      1
     253       1      25     142       35.00010         HEAD DEP BOUND      1
     254       1      25     143       35.00010         HEAD DEP BOUND      1
     255       1      26     135       35.00010         HEAD DEP BOUND      1
     256       1      26     136       35.00010         HEAD DEP BOUND      1
     257       1      26     137       35.00010         HEAD DEP BOUND      1
     258       1      26     138       35.00010         HEAD DEP BOUND      1
     259       1      26     139       35.00010         HEAD DEP BOUND      1
     260       1      26     140       35.00010         HEAD DEP BOUND      1
     261       1      26     141       35.00010         HEAD DEP BOUND      1
     262       1      26     142       35.00010         HEAD DEP BOUND      1
     263       1      26     143       35.00010         HEAD DEP BOUND      1
     264       1      27     139       35.00010         HEAD DEP BOUND      1
     265       1      27     140       35.00010         HEAD DEP BOUND      1
     266       1      27     141       35.00010         HEAD DEP BOUND      1
     267       1      27     142       35.00010         HEAD DEP BOUND      1
     268       1      27     143       35.00010         HEAD DEP BOUND      1
     269       1      27     144       35.00010         HEAD DEP BOUND      1
     270       2       1     113       35.00010         HEAD DEP BOUND      1
     271       2       1     114       35.00010         HEAD DEP BOUND      1
     272       2       1     115       35.00010         HEAD DEP BOUND      1
     273       2       1     116       35.00010         HEAD DEP BOUND      1
     274       2       1     117       35.00010         HEAD DEP BOUND      1
     275       2       1     118       35.00010         HEAD DEP BOUND      1
     276       2       1     119       35.00010         HEAD DEP BOUND      1
     277       2       1     120       35.00010         HEAD DEP BOUND      1
     278       2       1     121       35.00010         HEAD DEP BOUND      1
     279       2       1     122       35.00010         HEAD DEP BOUND      1
     280       2       1     123       35.00010         HEAD DEP BOUND      1
     281       2       1     124       35.00010         HEAD DEP BOUND      1
     282       2       1     125       35.00010         HEAD DEP BOUND      1
     283       2       2     113       35.00010         HEAD DEP BOUND      1
     284       2       2     114       35.00010         HEAD DEP BOUND      1
     285       2       2     115       35.00010         HEAD DEP BOUND      1
     286       2       2     116       35.00010         HEAD DEP BOUND      1
     287       2       2     117       35.00010         HEAD DEP BOUND      1
     288       2       2     118       35.00010         HEAD DEP BOUND      1
     289       2       2     119       35.00010         HEAD DEP BOUND      1
     290       2       2     120       35.00010         HEAD DEP BOUND      1
     291       2       2     121       35.00010         HEAD DEP BOUND      1
     292       2       2     122       35.00010         HEAD DEP BOUND      1
     293       2       2     123       35.00010         HEAD DEP BOUND      1
     294       2       2     124       35.00010         HEAD DEP BOUND      1
     295       2       2     125       35.00010         HEAD DEP BOUND      1
     296       2       3     113       35.00010         HEAD DEP BOUND      1
     297       2       3     114       35.00010         HEAD DEP BOUND      1
     298       2       3     115       35.00010         HEAD DEP BOUND      1
     299       2       3     116       35.00010         HEAD DEP BOUND      1
     300       2       3     117       35.00010         HEAD DEP BOUND      1
     301       2       3     118       35.00010         HEAD DEP BOUND      1
     302       2       3     119       35.00010         HEAD DEP BOUND      1
     303       2       3     120       35.00010         HEAD DEP BOUND      1
     304       2       3     121       35.00010         HEAD DEP BOUND      1
     305       2       3     122       35.00010         HEAD DEP BOUND      1
     306       2       3     123       35.00010         HEAD DEP BOUND      1
     307       2       3     124       35.00010         HEAD DEP BOUND      1
     308       2       3     125       35.00010         HEAD DEP BOUND      1
     309       2       3     126       35.00010         HEAD DEP BOUND      1
     310       2       4     114       35.00010         HEAD DEP BOUND      1
     311       2       4     115       35.00010         HEAD DEP BOUND      1
     312       2       4     116       35.00010         HEAD DEP BOUND      1
     313       2       4     117       35.00010         HEAD DEP BOUND      1
     314       2       4     118       35.00010         HEAD DEP BOUND      1
     315       2       4     119       35.00010         HEAD DEP BOUND      1
     316       2       4     120       35.00010         HEAD DEP BOUND      1
     317       2       4     121       35.00010         HEAD DEP BOUND      1
     318       2       4     122       35.00010         HEAD DEP BOUND      1
     319       2       4     123       35.00010         HEAD DEP BOUND      1
     320       2       4     124       35.00010         HEAD DEP BOUND      1
     321       2       4     125       35.00010         HEAD DEP BOUND      1
     322       2       4     126       35.00010         HEAD DEP BOUND      1
     323       2       5     114       35.00010         HEAD DEP BOUND      1
     324       2       5     115       35.00010         HEAD DEP BOUND      1
     325       2       5     116       35.00010         HEAD DEP BOUND      1
     326       2       5     117       35.00010         HEAD DEP BOUND      1
     327       2       5     118       35.00010         HEAD DEP BOUND      1
     328       2       5     119       35.00010         HEAD DEP BOUND      1
     329       2       5     120       35.00010         HEAD DEP BOUND      1
     330       2       5     121       35.00010         HEAD DEP BOUND      1
     331       2       5     122       35.00010         HEAD DEP BOUND      1
     332       2       5     123       35.00010         HEAD DEP BOUND      1
     333       2       5     124       35.00010         HEAD DEP BOUND      1
     334       2       5     125       35.00010         HEAD DEP BOUND      1
     335       2       5     126       35.00010         HEAD DEP BOUND      1
     336       2       5     127       35.00010         HEAD DEP BOUND      1
     337       2       6     114       35.00010         HEAD DEP BOUND      1
     338       2       6     115       35.00010         HEAD DEP BOUND      1
     339       2       6     116       35.00010         HEAD DEP BOUND      1
     340       2       6     117       35.00010         HEAD DEP BOUND      1
     341       2       6     118       35.00010         HEAD DEP BOUND      1
     342       2       6     119       35.00010         HEAD DEP BOUND      1
     343       2       6     120       35.00010         HEAD DEP BOUND      1
     344       2       6     121       35.00010         HEAD DEP BOUND      1
     345       2       6     122       35.00010         HEAD DEP BOUND      1
     346       2       6     123       35.00010         HEAD DEP BOUND      1
     347       2       6     124       35.00010         HEAD DEP BOUND      1
     348       2       6     125       35.00010         HEAD DEP BOUND      1
     349       2       6     126       35.00010         HEAD DEP BOUND      1
     350       2       6     127       35.00010         HEAD DEP BOUND      1
     351       2       6     128       35.00010         HEAD DEP BOUND      1
     352       2       7     114       35.00010         HEAD DEP BOUND      1
     353       2       7     115       35.00010         HEAD DEP BOUND      1
     354       2       7     116       35.00010         HEAD DEP BOUND      1
     355       2       7     117       35.00010         HEAD DEP BOUND      1
     356       2       7     118       35.00010         HEAD DEP BOUND      1
     357       2       7     119       35.00010         HEAD DEP BOUND      1
     358       2       7     120       35.00010         HEAD DEP BOUND      1
     359       2       7     121       35.00010         HEAD DEP BOUND      1
     360       2       7     122       35.00010         HEAD DEP BOUND      1
     361       2       7     123       35.00010         HEAD DEP BOUND      1
     362       2       7     124       35.00010         HEAD DEP BOUND      1
     363       2       7     125       35.00010         HEAD DEP BOUND      1
     364       2       7     126       35.00010         HEAD DEP BOUND      1
     365       2       7     127       35.00010         HEAD DEP BOUND      1
     366       2       7     128       35.00010         HEAD DEP BOUND      1
     367       2       8     114       35.00010         HEAD DEP BOUND      1
     368       2       8     115       35.00010         HEAD DEP BOUND      1
     369       2       8     116       35.00010         HEAD DEP BOUND      1
     370       2       8     117       35.00010         HEAD DEP BOUND      1
     371       2       8     118       35.00010         HEAD DEP BOUND      1
     372       2       8     119       35.00010         HEAD DEP BOUND      1
     373       2       8     120       35.00010         HEAD DEP BOUND      1
     374       2       8     121       35.00010         HEAD DEP BOUND      1
     375       2       8     122       35.00010         HEAD DEP BOUND      1
     376       2       8     123       35.00010         HEAD DEP BOUND      1
     377       2       8     124       35.00010         HEAD DEP BOUND      1
     378       2       8     125       35.00010         HEAD DEP BOUND      1
     379       2       8     126       35.00010         HEAD DEP BOUND      1
     380       2       8     127       35.00010         HEAD DEP BOUND      1
     381       2       8     128       35.00010         HEAD DEP BOUND      1
     382       2       8     129       35.00010         HEAD DEP BOUND      1
     383       2       9     115       35.00010         HEAD DEP BOUND      1
     384       2       9     116       35.00010         HEAD DEP BOUND      1
     385       2       9     117       35.00010         HEAD DEP BOUND      1
     386       2       9     118       35.00010         HEAD DEP BOUND      1
     387       2       9     119       35.00010         HEAD DEP BOUND      1
     388       2       9     120       35.00010         HEAD DEP BOUND      1
     389       2       9     121       35.00010         HEAD DEP BOUND      1
     390       2       9     122       35.00010         HEAD DEP BOUND      1
     391       2       9     123       35.00010         HEAD DEP BOUND      1
     392       2       9     124       35.00010         HEAD DEP BOUND      1
     393       2       9     125       35.00010         HEAD DEP BOUND      1
     394       2       9     126       35.00010         HEAD DEP BOUND      1
     395       2       9     127       35.00010         HEAD DEP BOUND      1
     396       2       9     128       35.00010         HEAD DEP BOUND      1
[...]
   3945     20     13    345      -16.79           1000.    
   3946      5     14    345      -28.43           1000.    
   3947      6     14    345      -28.43           1000.    
   3948      7     14    345      -28.43           1000.    
   3949      8     14    345      -28.43           1000.    
   3950      9     14    345      -28.43           1000.    
   3951     10     14    345      -28.43           1000.    
   3952     11     14    345      -28.43           1000.    
   3953     12     14    345      -28.43           1000.    
   3954     13     14    345      -28.43           1000.    
   3955     14     14    345      -28.43           1000.    
   3956     15     14    345      -28.43           1000.    
   3957     16     14    345      -28.43           1000.    
   3958     17     14    345      -17.05           1000.    
   3959     18     14    345      -17.05           1000.    
   3960     19     14    345      -17.05           1000.    
   3961     20     14    345      -17.05           1000.    
   3962      5     15    345      -28.43           1000.    
   3963      6     15    345      -28.43           1000.    
   3964      7     15    345      -28.43           1000.    
   3965      8     15    345      -28.43           1000.    
   3966      9     15    345      -28.43           1000.    
   3967     10     15    345      -28.43           1000.    
   3968     11     15    345      -28.43           1000.    
   3969     12     15    345      -28.43           1000.    
   3970     13     15    345      -28.43           1000.    
   3971     14     15    345      -28.43           1000.    
   3972     15     15    345      -28.43           1000.    
   3973     16     15    345      -28.43           1000.    
   3974     17     15    345      -17.36           1000.    
   3975     18     15    345      -17.36           1000.    
   3976     19     15    345      -17.36           1000.    
   3977     20     15    345      -17.36           1000.    
   3978      5     16    345      -27.45           1000.    
   3979      6     16    345      -27.45           1000.    
   3980      7     16    345      -27.45           1000.    
   3981      8     16    345      -27.45           1000.    
   3982      9     16    345      -27.45           1000.    
   3983     10     16    345      -27.45           1000.    
   3984     11     16    345      -27.45           1000.    
   3985     12     16    345      -27.45           1000.    
   3986     13     16    345      -27.45           1000.    
   3987     14     16    345      -27.45           1000.    
   3988     15     16    345      -27.45           1000.    
   3989     16     16    345      -27.45           1000.    
   3990     17     16    345      -16.68           1000.    
   3991     18     16    345      -16.68           1000.    
   3992     19     16    345      -16.68           1000.    
   3993     20     16    345      -16.68           1000.    
   3994      5     17    345      -27.45           1000.    
   3995      6     17    345      -27.45           1000.    
   3996      7     17    345      -27.45           1000.    
   3997      8     17    345      -27.45           1000.    
   3998      9     17    345      -27.45           1000.    
   3999     10     17    345      -27.45           1000.    
   4000     11     17    345      -27.45           1000.    
   4001     12     17    345      -27.45           1000.    
   4002     13     17    345      -27.45           1000.    
   4003     14     17    345      -27.45           1000.    
   4004     15     17    345      -27.45           1000.    
   4005     16     17    345      -27.45           1000.    
   4006     17     17    345      -17.45           1000.    
   4007     18     17    345      -17.45           1000.    
   4008     19     17    345      -17.45           1000.    
   4009     20     17    345      -17.45           1000.    
   4010      5     18    345      -27.45           1000.    
   4011      6     18    345      -27.45           1000.    
   4012      7     18    345      -27.45           1000.    
   4013      8     18    345      -27.45           1000.    
   4014      9     18    345      -27.45           1000.    
   4015     10     18    345      -27.45           1000.    
   4016     11     18    345      -27.45           1000.    
   4017     12     18    345      -27.45           1000.    
   4018     13     18    345      -27.45           1000.    
   4019     14     18    345      -27.45           1000.    
   4020     15     18    345      -27.45           1000.    
   4021     16     18    345      -27.45           1000.    
   4022     17     18    345      -18.06           1000.    
   4023     18     18    345      -18.06           1000.    
   4024     19     18    345      -18.06           1000.    
   4025     20     18    345      -18.06           1000.    
   4026      5     19    345      -27.45           1000.    
   4027      6     19    345      -27.45           1000.    
   4028      7     19    345      -27.45           1000.    
   4029      8     19    345      -27.45           1000.    
   4030      9     19    345      -27.45           1000.    
   4031     10     19    345      -27.45           1000.    
   4032     11     19    345      -27.45           1000.    
   4033     12     19    345      -27.45           1000.    
   4034     13     19    345      -27.45           1000.    
   4035     14     19    345      -27.45           1000.    
   4036     15     19    345      -27.45           1000.    
   4037     16     19    345      -27.45           1000.    
   4038     17     19    345      -18.15           1000.    
   4039     18     19    345      -18.15           1000.    
   4040     19     19    345      -18.15           1000.    
   4041     20     19    345      -18.15           1000.    
   4042      5     20    345      -27.45           1000.    
   4043      6     20    345      -27.45           1000.    
   4044      7     20    345      -27.45           1000.    
   4045      8     20    345      -27.45           1000.    
   4046      9     20    345      -27.45           1000.    
   4047     10     20    345      -27.45           1000.    
   4048     11     20    345      -27.45           1000.    
   4049     12     20    345      -27.45           1000.    
   4050     13     20    345      -27.45           1000.    
   4051     14     20    345      -27.45           1000.    
   4052     15     20    345      -27.45           1000.    
   4053     16     20    345      -27.45           1000.    
   4054     17     20    345      -17.96           1000.    
   4055     18     20    345      -17.96           1000.    
   4056     19     20    345      -17.96           1000.    
   4057     20     20    345      -17.96           1000.    
   4058      5     21    345      -27.45           1000.    
   4059      6     21    345      -27.45           1000.    
   4060      7     21    345      -27.45           1000.    
   4061      8     21    345      -27.45           1000.    
   4062      9     21    345      -27.45           1000.    
   4063     10     21    345      -27.45           1000.    
   4064     11     21    345      -27.45           1000.    
   4065     12     21    345      -27.45           1000.    
   4066     13     21    345      -27.45           1000.    
   4067     14     21    345      -27.45           1000.    
   4068     15     21    345      -27.45           1000.    
   4069     16     21    345      -27.45           1000.    
   4070     17     21    345      -18.81           1000.    
   4071     18     21    345      -18.81           1000.    
   4072     19     21    345      -18.81           1000.    
   4073     20     21    345      -18.81           1000.    
   4074      5     22    345      -27.45           1000.    
   4075      6     22    345      -27.45           1000.    
   4076      7     22    345      -27.45           1000.    
   4077      8     22    345      -27.45           1000.    
   4078      9     22    345      -27.45           1000.    
   4079     10     22    345      -27.45           1000.    
   4080     11     22    345      -27.45           1000.    
   4081     12     22    345      -27.45           1000.    
   4082     13     22    345      -27.45           1000.    
   4083     14     22    345      -27.45           1000.    
   4084     15     22    345      -27.45           1000.    
   4085     16     22    345      -27.45           1000.    
   4086     17     22    345      -19.57           1000.    
   4087     18     22    345      -19.57           1000.    
   4088     19     22    345      -19.57           1000.    
   4089     20     22    345      -19.57           1000.    
   4090      5     23    345      -27.45           1000.    
   4091      6     23    345      -27.45           1000.    
   4092      7     23    345      -27.45           1000.    
   4093      8     23    345      -27.45           1000.    
   4094      9     23    345      -27.45           1000.    
   4095     10     23    345      -27.45           1000.    
   4096     11     23    345      -27.45           1000.    
   4097     12     23    345      -27.45           1000.    
   4098     13     23    345      -27.45           1000.    
   4099     14     23    345      -27.45           1000.    
   4100     15     23    345      -27.45           1000.    
   4101     16     23    345      -27.45           1000.    
   4102     17     23    345      -20.04           1000.    
   4103     18     23    345      -20.04           1000.    
   4104     19     23    345      -20.04           1000.    
   4105     20     23    345      -20.04           1000.    
   4106      5     24    345      -27.45           1000.    
   4107      6     24    345      -27.45           1000.    
   4108      7     24    345      -27.45           1000.    
   4109      8     24    345      -27.45           1000.    
   4110      9     24    345      -27.45           1000.    
   4111     10     24    345      -27.45           1000.    
   4112     11     24    345      -27.45           1000.    
   4113     12     24    345      -27.45           1000.    
   4114     13     24    345      -27.45           1000.    
   4115     14     24    345      -27.45           1000.    
   4116     15     24    345      -27.45           1000.    
   4117     16     24    345      -27.45           1000.    
   4118     17     24    345      -20.19           1000.    
   4119     18     24    345      -20.19           1000.    
   4120     19     24    345      -20.19           1000.    
   4121     20     24    345      -20.19           1000.    
   4122      5     25    345      -27.57           1000.    
   4123      6     25    345      -27.57           1000.    
   4124      7     25    345      -27.57           1000.    
   4125      8     25    345      -27.57           1000.    
   4126      9     25    345      -27.57           1000.    
   4127     10     25    345      -27.57           1000.    
   4128     11     25    345      -27.57           1000.    
   4129     12     25    345      -27.57           1000.    
   4130     13     25    345      -27.57           1000.    
   4131     14     25    345      -27.57           1000.    
   4132     15     25    345      -27.57           1000.    
   4133     16     25    345      -27.57           1000.    
   4134     17     25    345      -20.37           1000.    
   4135     18     25    345      -20.37           1000.    
   4136     19     25    345      -20.37           1000.    
   4137     20     25    345      -20.37           1000.    
   4138      5     26    345      -28.06           1000.    
   4139      6     26    345      -28.06           1000.    
   4140      7     26    345      -28.06           1000.    
   4141      8     26    345      -28.06           1000.    
   4142      9     26    345      -28.06           1000.    
   4143     10     26    345      -28.06           1000.    
   4144     11     26    345      -28.06           1000.    
   4145     12     26    345      -28.06           1000.    
   4146     13     26    345      -28.06           1000.    
   4147     14     26    345      -28.06           1000.    
   4148     15     26    345      -28.06           1000.    
   4149     16     26    345      -28.06           1000.    
   4150     17     26    345      -20.79           1000.    
   4151     18     26    345      -20.79           1000.    
   4152     19     26    345      -20.79           1000.    
   4153     20     26    345      -20.79           1000.    
   4154      5     27    345      -28.51           1000.    
   4155      6     27    345      -28.51           1000.    
   4156      7     27    345      -28.51           1000.    
   4157      8     27    345      -28.51           1000.    
   4158      9     27    345      -28.51           1000.    
   4159     10     27    345      -28.51           1000.    
   4160     11     27    345      -28.51           1000.    
   4161     12     27    345      -28.51           1000.    
   4162     13     27    345      -28.51           1000.    
   4163     14     27    345      -28.51           1000.    
   4164     15     27    345      -28.51           1000.    
   4165     16     27    345      -28.51           1000.    
   4166     17     27    345      -21.46           1000.    
   4167     18     27    345      -21.46           1000.    
   4168     19     27    345      -21.46           1000.    
   4169     20     27    345      -21.46           1000.    

   4169 GHB CELLS


                                          ================================================
                                                         FROM TIME =   0.0000     TO    182.50    

 
 SOLVING FOR HEAD 
 FLOW MODEL IS TRANSIENT


 MAXIMUM STEPSIZE DURING WHICH ANY PARTICLE CANNOT MOVE MORE THAN ONE CELL
 = 0.3970    (WHEN MIN. R.F.=1)  AT K=  12, I=   1, J=  19

 MAXIMUM STEPSIZE WHICH MEETS STABILITY CRITERION OF THE ADVECTION TERM
 (FOR PURE FINITE-DIFFERENCE OPTION, MIXELM=0) 
 = 0.2842    (WHEN MIN. R.F.=1)  AT K=   2, I=  27, J= 133


 TOTAL NUMBER OF POINT SOURCES/SINKS PRESENT IN THE FLOW MODEL =  4169

 MAXIMUM STEPSIZE WHICH MEETS STABILITY CRITERION OF THE SINK & SOURCE TERM
 = 0.1607    (WHEN MIN. R.F.=1)  AT K=   1, I=   5, J= 139

 MAXIMUM STEPSIZE WHICH MEETS STABILITY CRITERION OF THE DISPERSION TERM
 = 0.2733    (WHEN MIN. R.F.=1)  AT K=   1, I=   1, J= 139


     1 CALLS TO GCG PACKAGE FOR TRANSPORT TIME STEP   1 IN FLOW TIME STEP   1 STRESS PERIOD   1
     2 TOTAL ITERATIONS

 OUTPUT CONTROL FOR STRESS PERIOD    1   TIME STEP   1
    SAVE HEAD FOR ALL LAYERS
    SAVE BUDGET
0WARNING: NUMERICAL OSCILLATION ENCOUNTERED
 ONE OR MORE CELL CONCENTRATIONS LESS THAN CRHOREF
 SMALLEST DENSITY =  0.100E+04
 AT CELL (I,J,K) = (   4, 168,  12)

 
 SOLVING FOR HEAD 
 FLOW MODEL IS TRANSIENT


 MAXIMUM STEPSIZE DURING WHICH ANY PARTICLE CANNOT MOVE MORE THAN ONE CELL
 =  1.469    (WHEN MIN. R.F.=1)  AT K=   1, I=  27, J= 142

 MAXIMUM STEPSIZE WHICH MEETS STABILITY CRITERION OF THE ADVECTION TERM
 (FOR PURE FINITE-DIFFERENCE OPTION, MIXELM=0) 
 =  1.032    (WHEN MIN. R.F.=1)  AT K=   1, I=  27, J= 142


 TOTAL NUMBER OF POINT SOURCES/SINKS PRESENT IN THE FLOW MODEL =  4169

 MAXIMUM STEPSIZE WHICH MEETS STABILITY CRITERION OF THE SINK & SOURCE TERM
 = 0.7243    (WHEN MIN. R.F.=1)  AT K=   1, I=  27, J= 144

 MAXIMUM STEPSIZE WHICH MEETS STABILITY CRITERION OF THE DISPERSION TERM
 = 0.7280    (WHEN MIN. R.F.=1)  AT K=  16, I=  10, J= 345
     1 CALLS TO GCG PACKAGE FOR TRANSPORT TIME STEP   2 IN FLOW TIME STEP   1 STRESS PERIOD   1
     3 TOTAL ITERATIONS
0WARNING: NUMERICAL OSCILLATION ENCOUNTERED
 ONE OR MORE CELL CONCENTRATIONS LESS THAN CRHOREF
 SMALLEST DENSITY =  1000.    
 AT CELL (I,J,K) = (  27, 160,   3)

 
 SOLVING FOR HEAD 
 FLOW MODEL IS TRANSIENT


 MAXIMUM STEPSIZE DURING WHICH ANY PARTICLE CANNOT MOVE MORE THAN ONE CELL
 =  3.075    (WHEN MIN. R.F.=1)  AT K=   1, I=  27, J= 142

 MAXIMUM STEPSIZE WHICH MEETS STABILITY CRITERION OF THE ADVECTION TERM
 (FOR PURE FINITE-DIFFERENCE OPTION, MIXELM=0) 
 =  1.262    (WHEN MIN. R.F.=1)  AT K=  16, I=   3, J= 345


 TOTAL NUMBER OF POINT SOURCES/SINKS PRESENT IN THE FLOW MODEL =  4169

 MAXIMUM STEPSIZE WHICH MEETS STABILITY CRITERION OF THE SINK & SOURCE TERM
 =  1.620    (WHEN MIN. R.F.=1)  AT K=   1, I=  27, J= 144

 MAXIMUM STEPSIZE WHICH MEETS STABILITY CRITERION OF THE DISPERSION TERM
 = 0.7248    (WHEN MIN. R.F.=1)  AT K=  16, I=  10, J= 345
     1 CALLS TO GCG PACKAGE FOR TRANSPORT TIME STEP   3 IN FLOW TIME STEP   1 STRESS PERIOD   1
     3 TOTAL ITERATIONS
0WARNING: NUMERICAL OSCILLATION ENCOUNTERED
 ONE OR MORE CELL CONCENTRATIONS LESS THAN CRHOREF
 SMALLEST DENSITY =  1000.    
 AT CELL (I,J,K) = (  12, 174,  11)

 
 SOLVING FOR HEAD 
 FLOW MODEL IS TRANSIENT


 MAXIMUM STEPSIZE DURING WHICH ANY PARTICLE CANNOT MOVE MORE THAN ONE CELL
 =  3.930    (WHEN MIN. R.F.=1)  AT K=  16, I=   3, J= 345

 MAXIMUM STEPSIZE WHICH MEETS STABILITY CRITERION OF THE ADVECTION TERM
 (FOR PURE FINITE-DIFFERENCE OPTION, MIXELM=0) 
 =  1.275    (WHEN MIN. R.F.=1)  AT K=  16, I=   3, J= 345


 TOTAL NUMBER OF POINT SOURCES/SINKS PRESENT IN THE FLOW MODEL =  4169

 MAXIMUM STEPSIZE WHICH MEETS STABILITY CRITERION OF THE SINK & SOURCE TERM
 =  1.651    (WHEN MIN. R.F.=1)  AT K=  16, I=   3, J= 345

 MAXIMUM STEPSIZE WHICH MEETS STABILITY CRITERION OF THE DISPERSION TERM
 = 0.7240    (WHEN MIN. R.F.=1)  AT K=  16, I=  10, J= 345
     1 CALLS TO GCG PACKAGE FOR TRANSPORT TIME STEP   4 IN FLOW TIME STEP   1 STRESS PERIOD   1
     3 TOTAL ITERATIONS
0WARNING: NUMERICAL OSCILLATION ENCOUNTERED
 ONE OR MORE CELL CONCENTRATIONS LESS THAN CRHOREF
 SMALLEST DENSITY =  1000.    
 AT CELL (I,J,K) = (  12, 174,  11)

 
 SOLVING FOR HEAD 
 FLOW MODEL IS TRANSIENT


 MAXIMUM STEPSIZE DURING WHICH ANY PARTICLE CANNOT MOVE MORE THAN ONE CELL
 =  3.933    (WHEN MIN. R.F.=1)  AT K=  16, I=   3, J= 345

 MAXIMUM STEPSIZE WHICH MEETS STABILITY CRITERION OF THE ADVECTION TERM
 (FOR PURE FINITE-DIFFERENCE OPTION, MIXELM=0) 
 =  1.284    (WHEN MIN. R.F.=1)  AT K=  16, I=   3, J= 345


 TOTAL NUMBER OF POINT SOURCES/SINKS PRESENT IN THE FLOW MODEL =  4169

 MAXIMUM STEPSIZE WHICH MEETS STABILITY CRITERION OF THE SINK & SOURCE TERM
 =  1.665    (WHEN MIN. R.F.=1)  AT K=  16, I=   3, J= 345

 MAXIMUM STEPSIZE WHICH MEETS STABILITY CRITERION OF THE DISPERSION TERM
 = 0.7235    (WHEN MIN. R.F.=1)  AT K=  16, I=  10, J= 345
     1 CALLS TO GCG PACKAGE FOR TRANSPORT TIME STEP   5 IN FLOW TIME STEP   1 STRESS PERIOD   1
     3 TOTAL ITERATIONS
0WARNING: NUMERICAL OSCILLATION ENCOUNTERED
 ONE OR MORE CELL CONCENTRATIONS LESS THAN CRHOREF
 SMALLEST DENSITY =  1000.    
 AT CELL (I,J,K) = (  12, 174,  11)

 
 SOLVING FOR HEAD 
 FLOW MODEL IS TRANSIENT


 MAXIMUM STEPSIZE DURING WHICH ANY PARTICLE CANNOT MOVE MORE THAN ONE CELL
 =  3.935    (WHEN MIN. R.F.=1)  AT K=  16, I=   3, J= 345

 MAXIMUM STEPSIZE WHICH MEETS STABILITY CRITERION OF THE ADVECTION TERM
 (FOR PURE FINITE-DIFFERENCE OPTION, MIXELM=0) 
 =  1.289    (WHEN MIN. R.F.=1)  AT K=  16, I=   3, J= 345


 TOTAL NUMBER OF POINT SOURCES/SINKS PRESENT IN THE FLOW MODEL =  4169

 MAXIMUM STEPSIZE WHICH MEETS STABILITY CRITERION OF THE SINK & SOURCE TERM
 =  1.673    (WHEN MIN. R.F.=1)  AT K=  16, I=   3, J= 345

 MAXIMUM STEPSIZE WHICH MEETS STABILITY CRITERION OF THE DISPERSION TERM
 = 0.7232    (WHEN MIN. R.F.=1)  AT K=  16, I=  10, J= 345
     1 CALLS TO GCG PACKAGE FOR TRANSPORT TIME STEP   6 IN FLOW TIME STEP   1 STRESS PERIOD   1
     3 TOTAL ITERATIONS
0WARNING: NUMERICAL OSCILLATION ENCOUNTERED
 ONE OR MORE CELL CONCENTRATIONS LESS THAN CRHOREF
 SMALLEST DENSITY =  1000.    
 AT CELL (I,J,K) = (  12, 174,  11)

 
 SOLVING FOR HEAD 
